*SPEF "ieee 1481-1999"
*DESIGN "iot_core_top"
*DATE "11:11:11 Fri 11 11, 1111"
*VENDOR "OpenRCX"
*PROGRAM "Parallel Extraction"
*VERSION "1.0"
*DESIGN_FLOW "NAME_SCOPE LOCAL" "PIN_CAP NONE"
*DIVIDER /
*DELIMITER :
*BUS_DELIMITER []
*T_UNIT 1 NS
*C_UNIT 1 PF
*R_UNIT 1 OHM
*L_UNIT 1 HENRY

*NAME_MAP
*3 clk
*4 current_pc[0]
*5 current_pc[10]
*6 current_pc[11]
*7 current_pc[12]
*8 current_pc[13]
*9 current_pc[14]
*10 current_pc[15]
*11 current_pc[1]
*12 current_pc[2]
*13 current_pc[3]
*14 current_pc[4]
*15 current_pc[5]
*16 current_pc[6]
*17 current_pc[7]
*18 current_pc[8]
*19 current_pc[9]
*20 is_sleeping
*21 rst_n
*22 wake_up
*23 _00_
*24 clknet_0_clk
*25 clknet_1_0__leaf_clk
*26 clknet_1_1__leaf_clk
*27 net1
*28 net10
*29 net11
*30 net12
*31 net13
*32 net14
*33 net15
*34 net16
*35 net17
*36 net18
*37 net19
*38 net2
*39 net20
*40 net21
*41 net22
*42 net23
*43 net24
*44 net25
*45 net26
*46 net27
*47 net28
*48 net29
*49 net3
*50 net30
*51 net31
*52 net32
*53 net33
*54 net34
*55 net35
*56 net36
*57 net37
*58 net38
*59 net39
*60 net4
*61 net40
*62 net41
*63 net42
*64 net43
*65 net44
*66 net45
*67 net46
*68 net47
*69 net48
*70 net49
*71 net5
*72 net50
*73 net6
*74 net7
*75 net8
*76 net9
*77 u_decoder\._01_
*78 u_decoder\.instruction\[12\]
*79 u_decoder\.instruction\[13\]
*80 u_decoder\.instruction\[14\]
*81 u_decoder\.instruction\[15\]
*82 u_imem\._00_
*83 u_imem\._01_
*84 u_imem\._02_
*85 u_imem\._03_
*86 u_imem\._04_
*87 u_imem\.pc_addr\[0\]
*88 u_imem\.pc_addr\[10\]
*89 u_imem\.pc_addr\[11\]
*90 u_imem\.pc_addr\[12\]
*91 u_imem\.pc_addr\[13\]
*92 u_imem\.pc_addr\[14\]
*93 u_imem\.pc_addr\[15\]
*94 u_imem\.pc_addr\[1\]
*95 u_imem\.pc_addr\[2\]
*96 u_imem\.pc_addr\[3\]
*97 u_imem\.pc_addr\[4\]
*98 u_imem\.pc_addr\[5\]
*99 u_imem\.pc_addr\[6\]
*100 u_imem\.pc_addr\[7\]
*101 u_imem\.pc_addr\[8\]
*102 u_imem\.pc_addr\[9\]
*103 u_pc\._000_
*104 u_pc\._001_
*105 u_pc\._002_
*106 u_pc\._003_
*107 u_pc\._004_
*108 u_pc\._005_
*109 u_pc\._006_
*110 u_pc\._007_
*111 u_pc\._008_
*112 u_pc\._009_
*113 u_pc\._010_
*114 u_pc\._011_
*115 u_pc\._012_
*116 u_pc\._013_
*117 u_pc\._014_
*118 u_pc\._015_
*119 u_pc\._016_
*120 u_pc\._017_
*121 u_pc\._018_
*122 u_pc\._019_
*123 u_pc\._020_
*124 u_pc\._021_
*125 u_pc\._022_
*126 u_pc\._023_
*127 u_pc\._024_
*128 u_pc\._025_
*129 u_pc\._026_
*130 u_pc\._027_
*131 u_pc\._028_
*132 u_pc\._029_
*133 u_pc\._030_
*134 u_pc\._031_
*135 u_pc\._032_
*136 u_pc\._033_
*137 u_pc\._034_
*138 u_pc\._035_
*139 u_pc\._036_
*140 u_pc\._037_
*141 u_pc\._038_
*142 u_pc\._039_
*143 u_pc\._040_
*144 u_pc\._041_
*145 u_pc\._042_
*146 u_pc\._043_
*147 u_pc\._044_
*148 u_pc\._045_
*149 u_pc\._046_
*150 u_pc\._047_
*151 u_pc\._048_
*152 u_pc\._049_
*153 u_pc\._050_
*154 u_pc\._051_
*155 u_pc\._052_
*156 u_pc\._053_
*157 u_pc\._054_
*158 u_pc\._055_
*159 u_pc\._056_
*160 u_pc\._057_
*161 u_pc\._058_
*162 u_pc\._059_
*163 u_pc\._060_
*164 u_pc\._061_
*165 u_pc\._062_
*166 u_pc\._063_
*167 u_pc\._064_
*168 u_pc\._065_
*169 u_pc\._066_
*170 u_pc\._067_
*171 u_pc\._068_
*172 u_pc\._069_
*173 u_pc\._070_
*174 u_pc\._071_
*175 u_pc\._072_
*176 u_pc\._073_
*177 u_pc\._074_
*178 u_pc\._075_
*179 u_pc\._076_
*180 u_pc\._077_
*181 u_pc\._078_
*182 u_pc\._079_
*183 u_pc\._080_
*184 u_pc\._081_
*185 u_pc\._082_
*186 u_pc\._083_
*187 u_pc\.sleep_en
*188 FILLER_0_0_109
*189 FILLER_0_0_119
*190 FILLER_0_0_131
*191 FILLER_0_0_139
*192 FILLER_0_0_141
*193 FILLER_0_0_153
*194 FILLER_0_0_165
*195 FILLER_0_0_169
*196 FILLER_0_0_181
*197 FILLER_0_0_193
*198 FILLER_0_0_197
*199 FILLER_0_0_209
*200 FILLER_0_0_21
*201 FILLER_0_0_221
*202 FILLER_0_0_225
*203 FILLER_0_0_237
*204 FILLER_0_0_245
*205 FILLER_0_0_251
*206 FILLER_0_0_253
*207 FILLER_0_0_265
*208 FILLER_0_0_27
*209 FILLER_0_0_277
*210 FILLER_0_0_281
*211 FILLER_0_0_29
*212 FILLER_0_0_293
*213 FILLER_0_0_305
*214 FILLER_0_0_309
*215 FILLER_0_0_321
*216 FILLER_0_0_333
*217 FILLER_0_0_337
*218 FILLER_0_0_349
*219 FILLER_0_0_361
*220 FILLER_0_0_365
*221 FILLER_0_0_373
*222 FILLER_0_0_385
*223 FILLER_0_0_391
*224 FILLER_0_0_393
*225 FILLER_0_0_405
*226 FILLER_0_0_41
*227 FILLER_0_0_417
*228 FILLER_0_0_421
*229 FILLER_0_0_433
*230 FILLER_0_0_445
*231 FILLER_0_0_449
*232 FILLER_0_0_461
*233 FILLER_0_0_473
*234 FILLER_0_0_477
*235 FILLER_0_0_489
*236 FILLER_0_0_501
*237 FILLER_0_0_511
*238 FILLER_0_0_523
*239 FILLER_0_0_53
*240 FILLER_0_0_531
*241 FILLER_0_0_533
*242 FILLER_0_0_545
*243 FILLER_0_0_557
*244 FILLER_0_0_561
*245 FILLER_0_0_57
*246 FILLER_0_0_573
*247 FILLER_0_0_585
*248 FILLER_0_0_589
*249 FILLER_0_0_601
*250 FILLER_0_0_613
*251 FILLER_0_0_617
*252 FILLER_0_0_69
*253 FILLER_0_0_81
*254 FILLER_0_0_85
*255 FILLER_0_0_9
*256 FILLER_0_0_97
*257 FILLER_0_100_109
*258 FILLER_0_100_121
*259 FILLER_0_100_133
*260 FILLER_0_100_139
*261 FILLER_0_100_141
*262 FILLER_0_100_15
*263 FILLER_0_100_153
*264 FILLER_0_100_165
*265 FILLER_0_100_177
*266 FILLER_0_100_189
*267 FILLER_0_100_195
*268 FILLER_0_100_197
*269 FILLER_0_100_209
*270 FILLER_0_100_221
*271 FILLER_0_100_233
*272 FILLER_0_100_245
*273 FILLER_0_100_251
*274 FILLER_0_100_253
*275 FILLER_0_100_265
*276 FILLER_0_100_27
*277 FILLER_0_100_277
*278 FILLER_0_100_289
*279 FILLER_0_100_29
*280 FILLER_0_100_3
*281 FILLER_0_100_301
*282 FILLER_0_100_307
*283 FILLER_0_100_309
*284 FILLER_0_100_321
*285 FILLER_0_100_333
*286 FILLER_0_100_345
*287 FILLER_0_100_357
*288 FILLER_0_100_363
*289 FILLER_0_100_365
*290 FILLER_0_100_377
*291 FILLER_0_100_389
*292 FILLER_0_100_401
*293 FILLER_0_100_41
*294 FILLER_0_100_413
*295 FILLER_0_100_419
*296 FILLER_0_100_421
*297 FILLER_0_100_433
*298 FILLER_0_100_445
*299 FILLER_0_100_457
*300 FILLER_0_100_469
*301 FILLER_0_100_475
*302 FILLER_0_100_477
*303 FILLER_0_100_489
*304 FILLER_0_100_501
*305 FILLER_0_100_513
*306 FILLER_0_100_525
*307 FILLER_0_100_53
*308 FILLER_0_100_531
*309 FILLER_0_100_533
*310 FILLER_0_100_545
*311 FILLER_0_100_557
*312 FILLER_0_100_569
*313 FILLER_0_100_581
*314 FILLER_0_100_587
*315 FILLER_0_100_589
*316 FILLER_0_100_601
*317 FILLER_0_100_613
*318 FILLER_0_100_65
*319 FILLER_0_100_77
*320 FILLER_0_100_83
*321 FILLER_0_100_85
*322 FILLER_0_100_97
*323 FILLER_0_101_109
*324 FILLER_0_101_113
*325 FILLER_0_101_125
*326 FILLER_0_101_135
*327 FILLER_0_101_139
*328 FILLER_0_101_141
*329 FILLER_0_101_153
*330 FILLER_0_101_165
*331 FILLER_0_101_169
*332 FILLER_0_101_181
*333 FILLER_0_101_19
*334 FILLER_0_101_193
*335 FILLER_0_101_197
*336 FILLER_0_101_209
*337 FILLER_0_101_221
*338 FILLER_0_101_225
*339 FILLER_0_101_237
*340 FILLER_0_101_249
*341 FILLER_0_101_253
*342 FILLER_0_101_261
*343 FILLER_0_101_268
*344 FILLER_0_101_27
*345 FILLER_0_101_281
*346 FILLER_0_101_29
*347 FILLER_0_101_293
*348 FILLER_0_101_305
*349 FILLER_0_101_309
*350 FILLER_0_101_321
*351 FILLER_0_101_333
*352 FILLER_0_101_337
*353 FILLER_0_101_349
*354 FILLER_0_101_361
*355 FILLER_0_101_365
*356 FILLER_0_101_377
*357 FILLER_0_101_389
*358 FILLER_0_101_399
*359 FILLER_0_101_41
*360 FILLER_0_101_411
*361 FILLER_0_101_419
*362 FILLER_0_101_421
*363 FILLER_0_101_433
*364 FILLER_0_101_445
*365 FILLER_0_101_449
*366 FILLER_0_101_461
*367 FILLER_0_101_473
*368 FILLER_0_101_477
*369 FILLER_0_101_489
*370 FILLER_0_101_501
*371 FILLER_0_101_505
*372 FILLER_0_101_513
*373 FILLER_0_101_520
*374 FILLER_0_101_53
*375 FILLER_0_101_533
*376 FILLER_0_101_545
*377 FILLER_0_101_557
*378 FILLER_0_101_561
*379 FILLER_0_101_57
*380 FILLER_0_101_573
*381 FILLER_0_101_585
*382 FILLER_0_101_589
*383 FILLER_0_101_601
*384 FILLER_0_101_613
*385 FILLER_0_101_617
*386 FILLER_0_101_69
*387 FILLER_0_101_7
*388 FILLER_0_101_81
*389 FILLER_0_101_85
*390 FILLER_0_101_97
*391 FILLER_0_10_109
*392 FILLER_0_10_121
*393 FILLER_0_10_133
*394 FILLER_0_10_139
*395 FILLER_0_10_141
*396 FILLER_0_10_15
*397 FILLER_0_10_153
*398 FILLER_0_10_165
*399 FILLER_0_10_177
*400 FILLER_0_10_189
*401 FILLER_0_10_195
*402 FILLER_0_10_197
*403 FILLER_0_10_209
*404 FILLER_0_10_221
*405 FILLER_0_10_233
*406 FILLER_0_10_245
*407 FILLER_0_10_251
*408 FILLER_0_10_253
*409 FILLER_0_10_265
*410 FILLER_0_10_27
*411 FILLER_0_10_277
*412 FILLER_0_10_289
*413 FILLER_0_10_29
*414 FILLER_0_10_3
*415 FILLER_0_10_301
*416 FILLER_0_10_307
*417 FILLER_0_10_309
*418 FILLER_0_10_321
*419 FILLER_0_10_333
*420 FILLER_0_10_345
*421 FILLER_0_10_357
*422 FILLER_0_10_363
*423 FILLER_0_10_365
*424 FILLER_0_10_377
*425 FILLER_0_10_389
*426 FILLER_0_10_401
*427 FILLER_0_10_41
*428 FILLER_0_10_413
*429 FILLER_0_10_419
*430 FILLER_0_10_421
*431 FILLER_0_10_433
*432 FILLER_0_10_445
*433 FILLER_0_10_457
*434 FILLER_0_10_469
*435 FILLER_0_10_475
*436 FILLER_0_10_477
*437 FILLER_0_10_489
*438 FILLER_0_10_501
*439 FILLER_0_10_513
*440 FILLER_0_10_525
*441 FILLER_0_10_53
*442 FILLER_0_10_531
*443 FILLER_0_10_533
*444 FILLER_0_10_545
*445 FILLER_0_10_557
*446 FILLER_0_10_569
*447 FILLER_0_10_581
*448 FILLER_0_10_587
*449 FILLER_0_10_589
*450 FILLER_0_10_601
*451 FILLER_0_10_613
*452 FILLER_0_10_65
*453 FILLER_0_10_77
*454 FILLER_0_10_83
*455 FILLER_0_10_85
*456 FILLER_0_10_97
*457 FILLER_0_11_105
*458 FILLER_0_11_111
*459 FILLER_0_11_113
*460 FILLER_0_11_125
*461 FILLER_0_11_137
*462 FILLER_0_11_149
*463 FILLER_0_11_15
*464 FILLER_0_11_161
*465 FILLER_0_11_167
*466 FILLER_0_11_169
*467 FILLER_0_11_181
*468 FILLER_0_11_193
*469 FILLER_0_11_205
*470 FILLER_0_11_217
*471 FILLER_0_11_223
*472 FILLER_0_11_225
*473 FILLER_0_11_237
*474 FILLER_0_11_249
*475 FILLER_0_11_261
*476 FILLER_0_11_27
*477 FILLER_0_11_273
*478 FILLER_0_11_279
*479 FILLER_0_11_281
*480 FILLER_0_11_293
*481 FILLER_0_11_3
*482 FILLER_0_11_305
*483 FILLER_0_11_317
*484 FILLER_0_11_329
*485 FILLER_0_11_335
*486 FILLER_0_11_337
*487 FILLER_0_11_349
*488 FILLER_0_11_361
*489 FILLER_0_11_373
*490 FILLER_0_11_385
*491 FILLER_0_11_39
*492 FILLER_0_11_391
*493 FILLER_0_11_393
*494 FILLER_0_11_405
*495 FILLER_0_11_417
*496 FILLER_0_11_429
*497 FILLER_0_11_441
*498 FILLER_0_11_447
*499 FILLER_0_11_449
*500 FILLER_0_11_461
*501 FILLER_0_11_473
*502 FILLER_0_11_485
*503 FILLER_0_11_497
*504 FILLER_0_11_503
*505 FILLER_0_11_505
*506 FILLER_0_11_51
*507 FILLER_0_11_517
*508 FILLER_0_11_529
*509 FILLER_0_11_541
*510 FILLER_0_11_55
*511 FILLER_0_11_553
*512 FILLER_0_11_559
*513 FILLER_0_11_561
*514 FILLER_0_11_57
*515 FILLER_0_11_573
*516 FILLER_0_11_585
*517 FILLER_0_11_597
*518 FILLER_0_11_609
*519 FILLER_0_11_615
*520 FILLER_0_11_617
*521 FILLER_0_11_69
*522 FILLER_0_11_81
*523 FILLER_0_11_93
*524 FILLER_0_12_109
*525 FILLER_0_12_121
*526 FILLER_0_12_133
*527 FILLER_0_12_139
*528 FILLER_0_12_141
*529 FILLER_0_12_15
*530 FILLER_0_12_153
*531 FILLER_0_12_165
*532 FILLER_0_12_177
*533 FILLER_0_12_189
*534 FILLER_0_12_195
*535 FILLER_0_12_197
*536 FILLER_0_12_209
*537 FILLER_0_12_221
*538 FILLER_0_12_233
*539 FILLER_0_12_245
*540 FILLER_0_12_251
*541 FILLER_0_12_253
*542 FILLER_0_12_265
*543 FILLER_0_12_27
*544 FILLER_0_12_277
*545 FILLER_0_12_289
*546 FILLER_0_12_29
*547 FILLER_0_12_3
*548 FILLER_0_12_301
*549 FILLER_0_12_307
*550 FILLER_0_12_309
*551 FILLER_0_12_321
*552 FILLER_0_12_333
*553 FILLER_0_12_345
*554 FILLER_0_12_357
*555 FILLER_0_12_363
*556 FILLER_0_12_365
*557 FILLER_0_12_377
*558 FILLER_0_12_389
*559 FILLER_0_12_401
*560 FILLER_0_12_41
*561 FILLER_0_12_413
*562 FILLER_0_12_419
*563 FILLER_0_12_421
*564 FILLER_0_12_433
*565 FILLER_0_12_445
*566 FILLER_0_12_457
*567 FILLER_0_12_469
*568 FILLER_0_12_475
*569 FILLER_0_12_477
*570 FILLER_0_12_489
*571 FILLER_0_12_501
*572 FILLER_0_12_513
*573 FILLER_0_12_525
*574 FILLER_0_12_53
*575 FILLER_0_12_531
*576 FILLER_0_12_533
*577 FILLER_0_12_545
*578 FILLER_0_12_557
*579 FILLER_0_12_569
*580 FILLER_0_12_581
*581 FILLER_0_12_587
*582 FILLER_0_12_589
*583 FILLER_0_12_601
*584 FILLER_0_12_613
*585 FILLER_0_12_65
*586 FILLER_0_12_77
*587 FILLER_0_12_83
*588 FILLER_0_12_85
*589 FILLER_0_12_97
*590 FILLER_0_13_105
*591 FILLER_0_13_111
*592 FILLER_0_13_113
*593 FILLER_0_13_125
*594 FILLER_0_13_137
*595 FILLER_0_13_149
*596 FILLER_0_13_15
*597 FILLER_0_13_161
*598 FILLER_0_13_167
*599 FILLER_0_13_169
*600 FILLER_0_13_181
*601 FILLER_0_13_193
*602 FILLER_0_13_205
*603 FILLER_0_13_217
*604 FILLER_0_13_223
*605 FILLER_0_13_225
*606 FILLER_0_13_237
*607 FILLER_0_13_249
*608 FILLER_0_13_261
*609 FILLER_0_13_27
*610 FILLER_0_13_273
*611 FILLER_0_13_279
*612 FILLER_0_13_281
*613 FILLER_0_13_293
*614 FILLER_0_13_3
*615 FILLER_0_13_305
*616 FILLER_0_13_317
*617 FILLER_0_13_329
*618 FILLER_0_13_335
*619 FILLER_0_13_337
*620 FILLER_0_13_349
*621 FILLER_0_13_361
*622 FILLER_0_13_373
*623 FILLER_0_13_385
*624 FILLER_0_13_39
*625 FILLER_0_13_391
*626 FILLER_0_13_393
*627 FILLER_0_13_405
*628 FILLER_0_13_417
*629 FILLER_0_13_429
*630 FILLER_0_13_441
*631 FILLER_0_13_447
*632 FILLER_0_13_449
*633 FILLER_0_13_461
*634 FILLER_0_13_473
*635 FILLER_0_13_485
*636 FILLER_0_13_497
*637 FILLER_0_13_503
*638 FILLER_0_13_505
*639 FILLER_0_13_51
*640 FILLER_0_13_517
*641 FILLER_0_13_529
*642 FILLER_0_13_541
*643 FILLER_0_13_55
*644 FILLER_0_13_553
*645 FILLER_0_13_559
*646 FILLER_0_13_561
*647 FILLER_0_13_57
*648 FILLER_0_13_573
*649 FILLER_0_13_585
*650 FILLER_0_13_597
*651 FILLER_0_13_609
*652 FILLER_0_13_615
*653 FILLER_0_13_617
*654 FILLER_0_13_69
*655 FILLER_0_13_81
*656 FILLER_0_13_93
*657 FILLER_0_14_109
*658 FILLER_0_14_121
*659 FILLER_0_14_133
*660 FILLER_0_14_139
*661 FILLER_0_14_141
*662 FILLER_0_14_15
*663 FILLER_0_14_153
*664 FILLER_0_14_165
*665 FILLER_0_14_177
*666 FILLER_0_14_189
*667 FILLER_0_14_195
*668 FILLER_0_14_197
*669 FILLER_0_14_209
*670 FILLER_0_14_221
*671 FILLER_0_14_233
*672 FILLER_0_14_245
*673 FILLER_0_14_251
*674 FILLER_0_14_253
*675 FILLER_0_14_265
*676 FILLER_0_14_27
*677 FILLER_0_14_277
*678 FILLER_0_14_289
*679 FILLER_0_14_29
*680 FILLER_0_14_3
*681 FILLER_0_14_301
*682 FILLER_0_14_307
*683 FILLER_0_14_309
*684 FILLER_0_14_321
*685 FILLER_0_14_333
*686 FILLER_0_14_345
*687 FILLER_0_14_357
*688 FILLER_0_14_363
*689 FILLER_0_14_365
*690 FILLER_0_14_377
*691 FILLER_0_14_389
*692 FILLER_0_14_401
*693 FILLER_0_14_41
*694 FILLER_0_14_413
*695 FILLER_0_14_419
*696 FILLER_0_14_421
*697 FILLER_0_14_433
*698 FILLER_0_14_445
*699 FILLER_0_14_457
*700 FILLER_0_14_469
*701 FILLER_0_14_475
*702 FILLER_0_14_477
*703 FILLER_0_14_489
*704 FILLER_0_14_501
*705 FILLER_0_14_513
*706 FILLER_0_14_525
*707 FILLER_0_14_53
*708 FILLER_0_14_531
*709 FILLER_0_14_533
*710 FILLER_0_14_545
*711 FILLER_0_14_557
*712 FILLER_0_14_569
*713 FILLER_0_14_581
*714 FILLER_0_14_587
*715 FILLER_0_14_589
*716 FILLER_0_14_601
*717 FILLER_0_14_613
*718 FILLER_0_14_65
*719 FILLER_0_14_77
*720 FILLER_0_14_83
*721 FILLER_0_14_85
*722 FILLER_0_14_97
*723 FILLER_0_15_105
*724 FILLER_0_15_111
*725 FILLER_0_15_113
*726 FILLER_0_15_125
*727 FILLER_0_15_137
*728 FILLER_0_15_149
*729 FILLER_0_15_15
*730 FILLER_0_15_161
*731 FILLER_0_15_167
*732 FILLER_0_15_169
*733 FILLER_0_15_181
*734 FILLER_0_15_193
*735 FILLER_0_15_205
*736 FILLER_0_15_217
*737 FILLER_0_15_223
*738 FILLER_0_15_225
*739 FILLER_0_15_237
*740 FILLER_0_15_249
*741 FILLER_0_15_261
*742 FILLER_0_15_27
*743 FILLER_0_15_273
*744 FILLER_0_15_279
*745 FILLER_0_15_281
*746 FILLER_0_15_293
*747 FILLER_0_15_3
*748 FILLER_0_15_305
*749 FILLER_0_15_317
*750 FILLER_0_15_329
*751 FILLER_0_15_335
*752 FILLER_0_15_337
*753 FILLER_0_15_349
*754 FILLER_0_15_361
*755 FILLER_0_15_373
*756 FILLER_0_15_385
*757 FILLER_0_15_39
*758 FILLER_0_15_391
*759 FILLER_0_15_393
*760 FILLER_0_15_405
*761 FILLER_0_15_417
*762 FILLER_0_15_429
*763 FILLER_0_15_441
*764 FILLER_0_15_447
*765 FILLER_0_15_449
*766 FILLER_0_15_461
*767 FILLER_0_15_473
*768 FILLER_0_15_485
*769 FILLER_0_15_497
*770 FILLER_0_15_503
*771 FILLER_0_15_505
*772 FILLER_0_15_51
*773 FILLER_0_15_517
*774 FILLER_0_15_529
*775 FILLER_0_15_541
*776 FILLER_0_15_55
*777 FILLER_0_15_553
*778 FILLER_0_15_559
*779 FILLER_0_15_561
*780 FILLER_0_15_57
*781 FILLER_0_15_573
*782 FILLER_0_15_585
*783 FILLER_0_15_597
*784 FILLER_0_15_609
*785 FILLER_0_15_615
*786 FILLER_0_15_617
*787 FILLER_0_15_69
*788 FILLER_0_15_81
*789 FILLER_0_15_93
*790 FILLER_0_16_109
*791 FILLER_0_16_121
*792 FILLER_0_16_133
*793 FILLER_0_16_139
*794 FILLER_0_16_141
*795 FILLER_0_16_15
*796 FILLER_0_16_153
*797 FILLER_0_16_165
*798 FILLER_0_16_177
*799 FILLER_0_16_189
*800 FILLER_0_16_195
*801 FILLER_0_16_197
*802 FILLER_0_16_209
*803 FILLER_0_16_221
*804 FILLER_0_16_233
*805 FILLER_0_16_245
*806 FILLER_0_16_251
*807 FILLER_0_16_253
*808 FILLER_0_16_265
*809 FILLER_0_16_27
*810 FILLER_0_16_277
*811 FILLER_0_16_289
*812 FILLER_0_16_29
*813 FILLER_0_16_3
*814 FILLER_0_16_301
*815 FILLER_0_16_307
*816 FILLER_0_16_309
*817 FILLER_0_16_321
*818 FILLER_0_16_333
*819 FILLER_0_16_345
*820 FILLER_0_16_357
*821 FILLER_0_16_363
*822 FILLER_0_16_365
*823 FILLER_0_16_377
*824 FILLER_0_16_389
*825 FILLER_0_16_401
*826 FILLER_0_16_41
*827 FILLER_0_16_413
*828 FILLER_0_16_419
*829 FILLER_0_16_421
*830 FILLER_0_16_433
*831 FILLER_0_16_445
*832 FILLER_0_16_457
*833 FILLER_0_16_469
*834 FILLER_0_16_475
*835 FILLER_0_16_477
*836 FILLER_0_16_489
*837 FILLER_0_16_501
*838 FILLER_0_16_513
*839 FILLER_0_16_525
*840 FILLER_0_16_53
*841 FILLER_0_16_531
*842 FILLER_0_16_533
*843 FILLER_0_16_545
*844 FILLER_0_16_557
*845 FILLER_0_16_569
*846 FILLER_0_16_581
*847 FILLER_0_16_587
*848 FILLER_0_16_589
*849 FILLER_0_16_601
*850 FILLER_0_16_613
*851 FILLER_0_16_65
*852 FILLER_0_16_77
*853 FILLER_0_16_83
*854 FILLER_0_16_85
*855 FILLER_0_16_97
*856 FILLER_0_17_105
*857 FILLER_0_17_111
*858 FILLER_0_17_113
*859 FILLER_0_17_125
*860 FILLER_0_17_137
*861 FILLER_0_17_149
*862 FILLER_0_17_15
*863 FILLER_0_17_161
*864 FILLER_0_17_167
*865 FILLER_0_17_169
*866 FILLER_0_17_181
*867 FILLER_0_17_193
*868 FILLER_0_17_205
*869 FILLER_0_17_217
*870 FILLER_0_17_223
*871 FILLER_0_17_225
*872 FILLER_0_17_237
*873 FILLER_0_17_249
*874 FILLER_0_17_261
*875 FILLER_0_17_27
*876 FILLER_0_17_273
*877 FILLER_0_17_279
*878 FILLER_0_17_281
*879 FILLER_0_17_293
*880 FILLER_0_17_3
*881 FILLER_0_17_305
*882 FILLER_0_17_317
*883 FILLER_0_17_329
*884 FILLER_0_17_335
*885 FILLER_0_17_337
*886 FILLER_0_17_349
*887 FILLER_0_17_361
*888 FILLER_0_17_373
*889 FILLER_0_17_385
*890 FILLER_0_17_39
*891 FILLER_0_17_391
*892 FILLER_0_17_393
*893 FILLER_0_17_405
*894 FILLER_0_17_417
*895 FILLER_0_17_429
*896 FILLER_0_17_441
*897 FILLER_0_17_447
*898 FILLER_0_17_449
*899 FILLER_0_17_461
*900 FILLER_0_17_473
*901 FILLER_0_17_485
*902 FILLER_0_17_497
*903 FILLER_0_17_503
*904 FILLER_0_17_505
*905 FILLER_0_17_51
*906 FILLER_0_17_517
*907 FILLER_0_17_529
*908 FILLER_0_17_541
*909 FILLER_0_17_55
*910 FILLER_0_17_553
*911 FILLER_0_17_559
*912 FILLER_0_17_561
*913 FILLER_0_17_57
*914 FILLER_0_17_573
*915 FILLER_0_17_585
*916 FILLER_0_17_597
*917 FILLER_0_17_609
*918 FILLER_0_17_615
*919 FILLER_0_17_617
*920 FILLER_0_17_69
*921 FILLER_0_17_81
*922 FILLER_0_17_93
*923 FILLER_0_18_109
*924 FILLER_0_18_121
*925 FILLER_0_18_133
*926 FILLER_0_18_139
*927 FILLER_0_18_141
*928 FILLER_0_18_15
*929 FILLER_0_18_153
*930 FILLER_0_18_165
*931 FILLER_0_18_177
*932 FILLER_0_18_189
*933 FILLER_0_18_195
*934 FILLER_0_18_197
*935 FILLER_0_18_209
*936 FILLER_0_18_221
*937 FILLER_0_18_233
*938 FILLER_0_18_245
*939 FILLER_0_18_251
*940 FILLER_0_18_253
*941 FILLER_0_18_265
*942 FILLER_0_18_27
*943 FILLER_0_18_277
*944 FILLER_0_18_289
*945 FILLER_0_18_29
*946 FILLER_0_18_3
*947 FILLER_0_18_301
*948 FILLER_0_18_307
*949 FILLER_0_18_309
*950 FILLER_0_18_321
*951 FILLER_0_18_333
*952 FILLER_0_18_345
*953 FILLER_0_18_357
*954 FILLER_0_18_363
*955 FILLER_0_18_365
*956 FILLER_0_18_377
*957 FILLER_0_18_389
*958 FILLER_0_18_401
*959 FILLER_0_18_41
*960 FILLER_0_18_413
*961 FILLER_0_18_419
*962 FILLER_0_18_421
*963 FILLER_0_18_433
*964 FILLER_0_18_445
*965 FILLER_0_18_457
*966 FILLER_0_18_469
*967 FILLER_0_18_475
*968 FILLER_0_18_477
*969 FILLER_0_18_489
*970 FILLER_0_18_501
*971 FILLER_0_18_513
*972 FILLER_0_18_525
*973 FILLER_0_18_53
*974 FILLER_0_18_531
*975 FILLER_0_18_533
*976 FILLER_0_18_545
*977 FILLER_0_18_557
*978 FILLER_0_18_569
*979 FILLER_0_18_581
*980 FILLER_0_18_587
*981 FILLER_0_18_589
*982 FILLER_0_18_601
*983 FILLER_0_18_613
*984 FILLER_0_18_65
*985 FILLER_0_18_77
*986 FILLER_0_18_83
*987 FILLER_0_18_85
*988 FILLER_0_18_97
*989 FILLER_0_19_105
*990 FILLER_0_19_111
*991 FILLER_0_19_113
*992 FILLER_0_19_125
*993 FILLER_0_19_137
*994 FILLER_0_19_149
*995 FILLER_0_19_161
*996 FILLER_0_19_167
*997 FILLER_0_19_169
*998 FILLER_0_19_181
*999 FILLER_0_19_193
*1000 FILLER_0_19_205
*1001 FILLER_0_19_21
*1002 FILLER_0_19_217
*1003 FILLER_0_19_223
*1004 FILLER_0_19_225
*1005 FILLER_0_19_237
*1006 FILLER_0_19_249
*1007 FILLER_0_19_261
*1008 FILLER_0_19_273
*1009 FILLER_0_19_279
*1010 FILLER_0_19_281
*1011 FILLER_0_19_293
*1012 FILLER_0_19_305
*1013 FILLER_0_19_317
*1014 FILLER_0_19_329
*1015 FILLER_0_19_33
*1016 FILLER_0_19_335
*1017 FILLER_0_19_337
*1018 FILLER_0_19_349
*1019 FILLER_0_19_361
*1020 FILLER_0_19_373
*1021 FILLER_0_19_385
*1022 FILLER_0_19_391
*1023 FILLER_0_19_393
*1024 FILLER_0_19_405
*1025 FILLER_0_19_417
*1026 FILLER_0_19_429
*1027 FILLER_0_19_441
*1028 FILLER_0_19_447
*1029 FILLER_0_19_449
*1030 FILLER_0_19_45
*1031 FILLER_0_19_461
*1032 FILLER_0_19_473
*1033 FILLER_0_19_485
*1034 FILLER_0_19_497
*1035 FILLER_0_19_503
*1036 FILLER_0_19_505
*1037 FILLER_0_19_517
*1038 FILLER_0_19_529
*1039 FILLER_0_19_53
*1040 FILLER_0_19_541
*1041 FILLER_0_19_553
*1042 FILLER_0_19_559
*1043 FILLER_0_19_561
*1044 FILLER_0_19_57
*1045 FILLER_0_19_573
*1046 FILLER_0_19_585
*1047 FILLER_0_19_597
*1048 FILLER_0_19_609
*1049 FILLER_0_19_615
*1050 FILLER_0_19_617
*1051 FILLER_0_19_69
*1052 FILLER_0_19_81
*1053 FILLER_0_19_9
*1054 FILLER_0_19_93
*1055 FILLER_0_1_105
*1056 FILLER_0_1_111
*1057 FILLER_0_1_113
*1058 FILLER_0_1_125
*1059 FILLER_0_1_137
*1060 FILLER_0_1_149
*1061 FILLER_0_1_15
*1062 FILLER_0_1_161
*1063 FILLER_0_1_167
*1064 FILLER_0_1_169
*1065 FILLER_0_1_181
*1066 FILLER_0_1_193
*1067 FILLER_0_1_205
*1068 FILLER_0_1_217
*1069 FILLER_0_1_223
*1070 FILLER_0_1_225
*1071 FILLER_0_1_237
*1072 FILLER_0_1_249
*1073 FILLER_0_1_261
*1074 FILLER_0_1_27
*1075 FILLER_0_1_273
*1076 FILLER_0_1_279
*1077 FILLER_0_1_281
*1078 FILLER_0_1_293
*1079 FILLER_0_1_3
*1080 FILLER_0_1_305
*1081 FILLER_0_1_317
*1082 FILLER_0_1_329
*1083 FILLER_0_1_335
*1084 FILLER_0_1_337
*1085 FILLER_0_1_349
*1086 FILLER_0_1_361
*1087 FILLER_0_1_373
*1088 FILLER_0_1_385
*1089 FILLER_0_1_39
*1090 FILLER_0_1_391
*1091 FILLER_0_1_393
*1092 FILLER_0_1_405
*1093 FILLER_0_1_417
*1094 FILLER_0_1_429
*1095 FILLER_0_1_441
*1096 FILLER_0_1_447
*1097 FILLER_0_1_449
*1098 FILLER_0_1_461
*1099 FILLER_0_1_473
*1100 FILLER_0_1_485
*1101 FILLER_0_1_497
*1102 FILLER_0_1_503
*1103 FILLER_0_1_505
*1104 FILLER_0_1_51
*1105 FILLER_0_1_517
*1106 FILLER_0_1_529
*1107 FILLER_0_1_541
*1108 FILLER_0_1_55
*1109 FILLER_0_1_553
*1110 FILLER_0_1_559
*1111 FILLER_0_1_561
*1112 FILLER_0_1_57
*1113 FILLER_0_1_573
*1114 FILLER_0_1_585
*1115 FILLER_0_1_597
*1116 FILLER_0_1_609
*1117 FILLER_0_1_615
*1118 FILLER_0_1_617
*1119 FILLER_0_1_69
*1120 FILLER_0_1_81
*1121 FILLER_0_1_93
*1122 FILLER_0_20_109
*1123 FILLER_0_20_121
*1124 FILLER_0_20_133
*1125 FILLER_0_20_139
*1126 FILLER_0_20_141
*1127 FILLER_0_20_15
*1128 FILLER_0_20_153
*1129 FILLER_0_20_165
*1130 FILLER_0_20_177
*1131 FILLER_0_20_189
*1132 FILLER_0_20_195
*1133 FILLER_0_20_197
*1134 FILLER_0_20_209
*1135 FILLER_0_20_221
*1136 FILLER_0_20_233
*1137 FILLER_0_20_245
*1138 FILLER_0_20_251
*1139 FILLER_0_20_253
*1140 FILLER_0_20_265
*1141 FILLER_0_20_27
*1142 FILLER_0_20_277
*1143 FILLER_0_20_289
*1144 FILLER_0_20_29
*1145 FILLER_0_20_3
*1146 FILLER_0_20_301
*1147 FILLER_0_20_307
*1148 FILLER_0_20_309
*1149 FILLER_0_20_321
*1150 FILLER_0_20_333
*1151 FILLER_0_20_345
*1152 FILLER_0_20_357
*1153 FILLER_0_20_363
*1154 FILLER_0_20_365
*1155 FILLER_0_20_377
*1156 FILLER_0_20_389
*1157 FILLER_0_20_401
*1158 FILLER_0_20_41
*1159 FILLER_0_20_413
*1160 FILLER_0_20_419
*1161 FILLER_0_20_421
*1162 FILLER_0_20_433
*1163 FILLER_0_20_445
*1164 FILLER_0_20_457
*1165 FILLER_0_20_469
*1166 FILLER_0_20_475
*1167 FILLER_0_20_477
*1168 FILLER_0_20_489
*1169 FILLER_0_20_501
*1170 FILLER_0_20_513
*1171 FILLER_0_20_525
*1172 FILLER_0_20_53
*1173 FILLER_0_20_531
*1174 FILLER_0_20_533
*1175 FILLER_0_20_545
*1176 FILLER_0_20_557
*1177 FILLER_0_20_569
*1178 FILLER_0_20_581
*1179 FILLER_0_20_587
*1180 FILLER_0_20_589
*1181 FILLER_0_20_601
*1182 FILLER_0_20_613
*1183 FILLER_0_20_65
*1184 FILLER_0_20_77
*1185 FILLER_0_20_83
*1186 FILLER_0_20_85
*1187 FILLER_0_20_97
*1188 FILLER_0_21_105
*1189 FILLER_0_21_111
*1190 FILLER_0_21_113
*1191 FILLER_0_21_125
*1192 FILLER_0_21_137
*1193 FILLER_0_21_149
*1194 FILLER_0_21_15
*1195 FILLER_0_21_161
*1196 FILLER_0_21_167
*1197 FILLER_0_21_169
*1198 FILLER_0_21_181
*1199 FILLER_0_21_193
*1200 FILLER_0_21_205
*1201 FILLER_0_21_217
*1202 FILLER_0_21_223
*1203 FILLER_0_21_225
*1204 FILLER_0_21_237
*1205 FILLER_0_21_249
*1206 FILLER_0_21_261
*1207 FILLER_0_21_27
*1208 FILLER_0_21_273
*1209 FILLER_0_21_279
*1210 FILLER_0_21_281
*1211 FILLER_0_21_293
*1212 FILLER_0_21_3
*1213 FILLER_0_21_305
*1214 FILLER_0_21_317
*1215 FILLER_0_21_329
*1216 FILLER_0_21_335
*1217 FILLER_0_21_337
*1218 FILLER_0_21_349
*1219 FILLER_0_21_361
*1220 FILLER_0_21_373
*1221 FILLER_0_21_385
*1222 FILLER_0_21_39
*1223 FILLER_0_21_391
*1224 FILLER_0_21_393
*1225 FILLER_0_21_405
*1226 FILLER_0_21_417
*1227 FILLER_0_21_429
*1228 FILLER_0_21_441
*1229 FILLER_0_21_447
*1230 FILLER_0_21_449
*1231 FILLER_0_21_461
*1232 FILLER_0_21_473
*1233 FILLER_0_21_485
*1234 FILLER_0_21_497
*1235 FILLER_0_21_503
*1236 FILLER_0_21_505
*1237 FILLER_0_21_51
*1238 FILLER_0_21_517
*1239 FILLER_0_21_529
*1240 FILLER_0_21_541
*1241 FILLER_0_21_55
*1242 FILLER_0_21_553
*1243 FILLER_0_21_559
*1244 FILLER_0_21_561
*1245 FILLER_0_21_57
*1246 FILLER_0_21_573
*1247 FILLER_0_21_585
*1248 FILLER_0_21_597
*1249 FILLER_0_21_609
*1250 FILLER_0_21_615
*1251 FILLER_0_21_617
*1252 FILLER_0_21_69
*1253 FILLER_0_21_81
*1254 FILLER_0_21_93
*1255 FILLER_0_22_109
*1256 FILLER_0_22_121
*1257 FILLER_0_22_133
*1258 FILLER_0_22_139
*1259 FILLER_0_22_141
*1260 FILLER_0_22_15
*1261 FILLER_0_22_153
*1262 FILLER_0_22_165
*1263 FILLER_0_22_177
*1264 FILLER_0_22_189
*1265 FILLER_0_22_195
*1266 FILLER_0_22_197
*1267 FILLER_0_22_209
*1268 FILLER_0_22_221
*1269 FILLER_0_22_233
*1270 FILLER_0_22_245
*1271 FILLER_0_22_251
*1272 FILLER_0_22_253
*1273 FILLER_0_22_265
*1274 FILLER_0_22_27
*1275 FILLER_0_22_277
*1276 FILLER_0_22_289
*1277 FILLER_0_22_29
*1278 FILLER_0_22_3
*1279 FILLER_0_22_301
*1280 FILLER_0_22_307
*1281 FILLER_0_22_309
*1282 FILLER_0_22_321
*1283 FILLER_0_22_333
*1284 FILLER_0_22_345
*1285 FILLER_0_22_357
*1286 FILLER_0_22_363
*1287 FILLER_0_22_365
*1288 FILLER_0_22_377
*1289 FILLER_0_22_389
*1290 FILLER_0_22_401
*1291 FILLER_0_22_41
*1292 FILLER_0_22_413
*1293 FILLER_0_22_419
*1294 FILLER_0_22_421
*1295 FILLER_0_22_433
*1296 FILLER_0_22_445
*1297 FILLER_0_22_457
*1298 FILLER_0_22_469
*1299 FILLER_0_22_475
*1300 FILLER_0_22_477
*1301 FILLER_0_22_489
*1302 FILLER_0_22_501
*1303 FILLER_0_22_513
*1304 FILLER_0_22_525
*1305 FILLER_0_22_53
*1306 FILLER_0_22_531
*1307 FILLER_0_22_533
*1308 FILLER_0_22_545
*1309 FILLER_0_22_557
*1310 FILLER_0_22_569
*1311 FILLER_0_22_581
*1312 FILLER_0_22_587
*1313 FILLER_0_22_589
*1314 FILLER_0_22_601
*1315 FILLER_0_22_613
*1316 FILLER_0_22_65
*1317 FILLER_0_22_77
*1318 FILLER_0_22_83
*1319 FILLER_0_22_85
*1320 FILLER_0_22_97
*1321 FILLER_0_23_105
*1322 FILLER_0_23_111
*1323 FILLER_0_23_113
*1324 FILLER_0_23_125
*1325 FILLER_0_23_137
*1326 FILLER_0_23_149
*1327 FILLER_0_23_15
*1328 FILLER_0_23_161
*1329 FILLER_0_23_167
*1330 FILLER_0_23_169
*1331 FILLER_0_23_181
*1332 FILLER_0_23_193
*1333 FILLER_0_23_205
*1334 FILLER_0_23_217
*1335 FILLER_0_23_223
*1336 FILLER_0_23_225
*1337 FILLER_0_23_237
*1338 FILLER_0_23_249
*1339 FILLER_0_23_261
*1340 FILLER_0_23_27
*1341 FILLER_0_23_273
*1342 FILLER_0_23_279
*1343 FILLER_0_23_281
*1344 FILLER_0_23_293
*1345 FILLER_0_23_3
*1346 FILLER_0_23_305
*1347 FILLER_0_23_317
*1348 FILLER_0_23_329
*1349 FILLER_0_23_335
*1350 FILLER_0_23_337
*1351 FILLER_0_23_349
*1352 FILLER_0_23_361
*1353 FILLER_0_23_373
*1354 FILLER_0_23_385
*1355 FILLER_0_23_39
*1356 FILLER_0_23_391
*1357 FILLER_0_23_393
*1358 FILLER_0_23_405
*1359 FILLER_0_23_417
*1360 FILLER_0_23_429
*1361 FILLER_0_23_441
*1362 FILLER_0_23_447
*1363 FILLER_0_23_449
*1364 FILLER_0_23_461
*1365 FILLER_0_23_473
*1366 FILLER_0_23_485
*1367 FILLER_0_23_497
*1368 FILLER_0_23_503
*1369 FILLER_0_23_505
*1370 FILLER_0_23_51
*1371 FILLER_0_23_517
*1372 FILLER_0_23_529
*1373 FILLER_0_23_541
*1374 FILLER_0_23_55
*1375 FILLER_0_23_553
*1376 FILLER_0_23_559
*1377 FILLER_0_23_561
*1378 FILLER_0_23_57
*1379 FILLER_0_23_573
*1380 FILLER_0_23_585
*1381 FILLER_0_23_597
*1382 FILLER_0_23_609
*1383 FILLER_0_23_615
*1384 FILLER_0_23_617
*1385 FILLER_0_23_69
*1386 FILLER_0_23_81
*1387 FILLER_0_23_93
*1388 FILLER_0_24_109
*1389 FILLER_0_24_121
*1390 FILLER_0_24_133
*1391 FILLER_0_24_139
*1392 FILLER_0_24_141
*1393 FILLER_0_24_15
*1394 FILLER_0_24_153
*1395 FILLER_0_24_165
*1396 FILLER_0_24_177
*1397 FILLER_0_24_189
*1398 FILLER_0_24_195
*1399 FILLER_0_24_197
*1400 FILLER_0_24_209
*1401 FILLER_0_24_221
*1402 FILLER_0_24_233
*1403 FILLER_0_24_245
*1404 FILLER_0_24_251
*1405 FILLER_0_24_253
*1406 FILLER_0_24_265
*1407 FILLER_0_24_27
*1408 FILLER_0_24_277
*1409 FILLER_0_24_289
*1410 FILLER_0_24_29
*1411 FILLER_0_24_3
*1412 FILLER_0_24_301
*1413 FILLER_0_24_307
*1414 FILLER_0_24_309
*1415 FILLER_0_24_321
*1416 FILLER_0_24_333
*1417 FILLER_0_24_345
*1418 FILLER_0_24_357
*1419 FILLER_0_24_363
*1420 FILLER_0_24_365
*1421 FILLER_0_24_377
*1422 FILLER_0_24_389
*1423 FILLER_0_24_401
*1424 FILLER_0_24_41
*1425 FILLER_0_24_413
*1426 FILLER_0_24_419
*1427 FILLER_0_24_421
*1428 FILLER_0_24_433
*1429 FILLER_0_24_445
*1430 FILLER_0_24_457
*1431 FILLER_0_24_469
*1432 FILLER_0_24_475
*1433 FILLER_0_24_477
*1434 FILLER_0_24_489
*1435 FILLER_0_24_501
*1436 FILLER_0_24_513
*1437 FILLER_0_24_525
*1438 FILLER_0_24_53
*1439 FILLER_0_24_531
*1440 FILLER_0_24_533
*1441 FILLER_0_24_545
*1442 FILLER_0_24_557
*1443 FILLER_0_24_569
*1444 FILLER_0_24_581
*1445 FILLER_0_24_587
*1446 FILLER_0_24_589
*1447 FILLER_0_24_601